/*--------------------------------*- C++ -*----------------------------------*\
| =========                 |                                                 |
| \\      /  F ield         | OpenFOAM: The Open Source CFD Toolbox           |
|  \\    /   O peration     | Version:  v2406                                 |
|   \\  /    A nd           | Web:      www.OpenFOAM.com                      |
|    \\/     M anipulation  |                                                 |
\*---------------------------------------------------------------------------*/
FoamFile
{
    version     2.0;
    format      ascii;
    class       dictionary;
    location    "constant";
    object      bedloadProperties;
}

// ************************** sediment properties ************************** //

sedimentBed            on;

bedload                on;

bedMotion              on;

ABorder                1;

sedimentBedPatches     (bed);

avalanche              on;

Qav                    1e-3;

reposeAngle            32;

// ************************************************************************* //
