/*--------------------------------*- C++ -*----------------------------------*\
| =========                 |                                                 |
| \\      /  F ield         | OpenFOAM: The Open Source CFD Toolbox           |
|  \\    /   O peration     | Version:  1.7.1                                 |
|   \\  /    A nd           | Web:      www.OpenFOAM.com                      |
|    \\/     M anipulation  |                                                 |
\*---------------------------------------------------------------------------*/
FoamFile
{
    version     2.0;
    format      ascii;
    class       dictionary;
    location    "constant";
    object      bedloadProperties;
}

// ************************** sediment properties ************************** //

sedimentBed            on;  // on or off

meshMotion             on;  // default is on

sedimentBedPatches     (sedimentBed);

filterExner            off;

alphaFilter            0.2;

Ncorrection            1;

avalanche              on;

// ************************************************************************* //
