/*--------------------------------*- C++ -*----------------------------------*\
| =========                 |                                                 |
| \\      /  F ield         | OpenFOAM: The Open Source CFD Toolbox           |
|  \\    /   O peration     | Version:  v2406                                 |
|   \\  /    A nd           | Web:      www.OpenFOAM.com                      |
|    \\/     M anipulation  |                                                 |
\*---------------------------------------------------------------------------*/
FoamFile
{
    version     2.0;
    format      ascii;
    class       dictionary;
    location    "constant";
    object      suspensionProperties;
}
// * * * * * * * * * * * * * * * * * * * * * * * * * * * * * * * * * * * * * //

suspension     on;

fallModel
{
    //  choose a model to compute terminal falling velocity of sediment
    // options are Fredsoe, 
    type   Fredsoe;
}

hindranceModel
{
    // choose an hindrance model, options are none, Zaki or ZakiModified
    type   none;
    // for model Zaki and ZakiModified, a coefficient n must be specified
    n      4.65;
}

// maximum possible value of reference concentration for erosion
// default is 0.3, acceptable values are 0.1 - 0.3
CsbMax     0.3;

// ************************************************************************** //
