/*--------------------------------*- C++ -*----------------------------------*\
| =========                 |                                                 |
| \\      /  F ield         | OpenFOAM: The Open Source CFD Toolbox           |
|  \\    /   O peration     | Version:  v2406                                 |
|   \\  /    A nd           | Web:      www.OpenFOAM.com                      |
|    \\/     M anipulation  |                                                 |
\*---------------------------------------------------------------------------*/
FoamFile
{
    version     2.0;
    format      ascii;
    class       dictionary;
    location    "system";
    object      fvSchemes;
}
// * * * * * * * * * * * * * * * * * * * * * * * * * * * * * * * * * * * * * //

ddtSchemes
{
    default         Euler implicit;
}

gradSchemes
{
    default         Gauss linear;
}

divSchemes
{
    default         none;
// UEqn
    div(phi,U)      Gauss upwind phi;
// CsEqn
    div(phip,Cs)    Gauss vanLeer;
// pEqn
    div((nuEff*dev2(T(grad(U))))) Gauss linear;
// k and EpsilonEqn
    div(phi,k)     Gauss limitedLinear 1;
    div(phi,epsilon) Gauss limitedLinear 1;
    div(phi,omega) Gauss limitedLinear 1;

}

laplacianSchemes
{
    default         Gauss linear orthogonal;
}


interpolationSchemes
{
    default  linear;
}

snGradSchemes
{
    default         corrected;
}

fluxRequired
{
    default         no;
    p                 ;
    Cs                ;
}
wallDist
{
method meshWave;
}


// ************************************************************************* //
