/*--------------------------------*- C++ -*----------------------------------*\
| =========                 |                                                 |
| \\      /  F ield         | OpenFOAM: The Open Source CFD Toolbox           |
|  \\    /   O peration     | Version:  v2406                                 |
|   \\  /    A nd           | Web:      www.OpenFOAM.org                      |
|    \\/     M anipulation  |                                                 |
\*---------------------------------------------------------------------------*/
FoamFile
{
    version     2.0;
    format      ascii;
    class       dictionary;
    object      topoSetDict;
}


actions
(
    // Load initial cellSet
    {
        name    referenceLevel;
        type    cellZoneSet;
        action  new;
        source  boxToCell;
        sourceInfo
        {
            box (-0.1 0 -0.1) (0.1 0.0005 0.1);
        }
    }
    setsToZones
);
