/*--------------------------------*- C++ -*----------------------------------*\
| =========                 |                                                 |
| \\      /  F ield         | OpenFOAM: The Open Source CFD Toolbox           |
|  \\    /   O peration     | Version:  2206                                  |
|   \\  /    A nd           | Website:  www.openfoam.com                      |
|    \\/     M anipulation  |                                                 |
\*---------------------------------------------------------------------------*/
FoamFile
{
    version     2.0;
    format      ascii;
    arch        "LSB;label=32;scalar=64";
    class       polyBoundaryMesh;
    location    "constant/polyMesh";
    object      boundary;
}
// * * * * * * * * * * * * * * * * * * * * * * * * * * * * * * * * * * * * * //

6
(
    inlet
    {
        type            patch;
        nFaces          20;
        startFace       1540;
    }
    outlet
    {
        type            patch;
        nFaces          20;
        startFace       1560;
    }
    upperBoundary
    {
        type            patch;
        nFaces          40;
        startFace       1580;
    }
    bottomBoundary
    {
        type            patch;
        nFaces          40;
        startFace       1620;
    }
    lateralBoundary
    {
        type            empty;
        inGroups        1(empty);
        nFaces          840;
        startFace       1660;
    }
    defaultFaces
    {
        type            empty;
        inGroups        1(empty);
        nFaces          800;
        startFace       2500;
    }
)

// ************************************************************************* //
