/*--------------------------------*- C++ -*----------------------------------*\
| =========                 |                                                 |
| \\      /  F ield         | OpenFOAM: The Open Source CFD Toolbox           |
|  \\    /   O peration     | Version:  1.7.1                                 |
|   \\  /    A nd           | Web:      www.OpenFOAM.com                      |
|    \\/     M anipulation  |                                                 |
\*---------------------------------------------------------------------------*/
FoamFile
{
    version     2.0;
    format      ascii;
    class       dictionary;
    object      blockMeshDict;
}
// * * * * * * * * * * * * * * * * * * * * * * * * * * * * * * * * * * * * * //

scale 1e-3;


height           90;
dx               1;
dy               6.03;

nzlo             40;
nzup             40;
gzlo             10;
gzup             0.1;

h2               #eval{ 0.5 * $height };

vertices        
(
    (0 0 0)  // 0
    ($dx 0 0)  // 1
    ($dx $dy 0)  // 2
    (0 $dy 0)  // 3

    (0 0 $h2)  // 4
    ($dx 0 $h2)  // 5
    ($dx $dy $h2)  // 6
    (0 $dy $h2)  // 7

    (0 0 $height)  // 8
    ($dx 0 $height)  // 9
    ($dx $dy $height)  // 10
    (0 $dy $height)  // 11
);

blocks          
(
    // lower block
    hex (0 1 2 3 4 5 6 7) (1 1 $nzlo) simpleGrading (1 1 $gzlo)
    // upper block
    hex (4 5 6 7 8 9 10 11) (1 1 $nzup) simpleGrading (1 1 $gzup)
);

edges
(
);

boundary         
(
    inlet
    {
     type           cyclic;
     neighbourPatch outlet;
     faces
         (
             (0 4 7 3)
             (4 7 11 8)
         );
    }
    outlet
    {
     type            cyclic;
     neighbourPatch  inlet;
     faces
         (
             (1 2 6 5)
             (5 6 10 9)
         );
    }
    top
    {
        type    wall;
        faces
            (
                (8 9 10 11)
            );
    }
    bed
    {
     type wall;
     faces
         (
             (3 2 1 0)
         );
    }
    sides
    {
    type empty;
    faces
        (
            (0 1 5 4)
            (3 7 6 2)
            (4 5 9 8)
            (7 11 10 6)
        );
    }
);

mergePatchPairs
(
);

// ************************************************************************* //
