/*--------------------------------*- C++ -*----------------------------------*\
| =========                 |                                                 |
| \\      /  F ield         | OpenFOAM: The Open Source CFD Toolbox           |
|  \\    /   O peration     | Version:  v2312                                 |
|   \\  /    A nd           | Web:      www.OpenFOAM.com                      |
|    \\/     M anipulation  |                                                 |
\*---------------------------------------------------------------------------*/
FoamFile
{
    version     2.0;
    format      ascii;
    class       dictionary;
    location    "system";
    object      controlDict;
}
// * * * * * * * * * * * * * * * * * * * * * * * * * * * * * * * * * * * * * //

application     sedExnerFoam;

startFrom       latestTime;

startTime       0;

stopAt          endTime;

endTime         25;

deltaT          0.05;

writeControl    adjustableRunTime;

writeInterval   1;

purgeWrite      0;

writeFormat     asci;

writePrecision  6;

timeFormat      general;

timePrecision   6;

runTimeModifiable on;

adjustTimeStep  off;

maxCo           0.3;

maxAlphaCo      0.3;

maxDeltaT       2e-1;

// ************************************************************************* //
