/*--------------------------------*- C++ -*----------------------------------*\
| =========                 |                                                 |
| \\      /  F ield         | OpenFOAM: The Open Source CFD Toolbox           |
|  \\    /   O peration     | Version:  v2312                                 |
|   \\  /    A nd           | Web:      www.OpenFOAM.com                      |
|    \\/     M anipulation  |                                                 |
\*---------------------------------------------------------------------------*/
FoamFile
{
    version     2.0;
    format      ascii;
    class       dictionary;
    location    "system";
    object      fvSchemes;
}
// * * * * * * * * * * * * * * * * * * * * * * * * * * * * * * * * * * * * * //

ddtSchemes
{
    default         Euler implicit;
}

gradSchemes
{
    default         Gauss linear;
}

divSchemes
{
    default         none;
// UEqn
    div(phi,U)     Gauss upwind phi;
// CEqn
    div(phi,Cs)     Gauss vanLeer; //Gamma 1;
    div(phir,Cs)    Gauss linear; //Gamma 1;
    div(phip,Cs)    Gauss upwind phip;
// pEqn
    div((nuEff*dev2(T(grad(U))))) Gauss linear;

}

laplacianSchemes
{
    default         Gauss linear orthogonal;
}


interpolationSchemes
{
    default  linear;
//    flux((U+Ws)) downwind phip;
//    flux(Ws) downwind phip;
    /*interpolate((U+Ws)) upwind phi;//downwind phip;
    flux(U) linear;
    flux((U+Ws)) upwind phi;
    flux(HbyA) linear;
    dotInterpolate(S,U_0) linear;
    interpolate((1|A(U))) linear;*/
}

wallDist
{
    method          meshWave;
}

snGradSchemes
{
    default         corrected;
}

fluxRequired
{
    default         no;
    p                 ;
    Cs                ;
}


// ************************************************************************* //
